data/NETS-NYPS 68 Bus System.RAW
 0,    100.00, 33, 0, 0, 60.00       / September 03, 2016 23:07:47; Simulator Version 20 Beta; BuildDate 2016_7_25


    1,'1           ', 138.0000,2,   1,   1,   1,1.04500,  -8.9570, 1.10000, 0.90000, 1.10000, 0.90000
    2,'2           ', 138.0000,2,   1,   1,   1,0.98000,  -0.9843, 1.10000, 0.90000, 1.10000, 0.90000
    3,'3           ', 138.0000,2,   1,   1,   1,0.98300,   1.6121, 1.10000, 0.90000, 1.10000, 0.90000
    4,'4           ', 138.0000,2,   1,   1,   1,0.99700,   1.6675, 1.10000, 0.90000, 1.10000, 0.90000
    5,'5           ', 138.0000,2,   1,   1,   1,1.01100,  -0.6284, 1.10000, 0.90000, 1.10000, 0.90000
    6,'6           ', 138.0000,2,   1,   1,   1,1.05000,   3.8417, 1.10000, 0.90000, 1.10000, 0.90000
    7,'7           ', 138.0000,2,   1,   1,   1,1.06300,   6.0300, 1.10000, 0.90000, 1.10000, 0.90000
    8,'8           ', 138.0000,2,   1,   1,   1,1.03000,  -2.8418, 1.10000, 0.90000, 1.10000, 0.90000
    9,'9           ', 138.0000,2,   1,   1,   1,1.02500,   2.6516, 1.10000, 0.90000, 1.10000, 0.90000
   10,'10          ', 138.0000,2,   2,   1,   1,1.01000,  -9.6446, 1.10000, 0.90000, 1.10000, 0.90000
   11,'11          ', 138.0000,2,   2,   1,   1,1.00000,  -7.2252, 1.10000, 0.90000, 1.10000, 0.90000
   12,'12          ', 138.0000,2,   2,   1,   1,1.01560, -22.6322, 1.10000, 0.90000, 1.10000, 0.90000
   13,'13          ', 138.0000,2,   2,   1,   1,1.01100, -28.6549, 1.10000, 0.90000, 1.10000, 0.90000
   14,'14          ', 138.0000,2,   3,   1,   1,1.00000,  10.9616, 1.10000, 0.90000, 1.10000, 0.90000
   15,'15          ', 138.0000,2,   4,   1,   1,1.00000,   0.0165, 1.10000, 0.90000, 1.10000, 0.90000
   16,'16          ', 138.0000,3,   5,   1,   1,1.00000,   0.0000, 1.10000, 0.90000, 1.10000, 0.90000
   17,'17          ', 138.0000,1,   2,   1,   1,0.94992, -36.0278, 1.10000, 0.90000, 1.10000, 0.90000
   18,'18          ', 138.0000,1,   5,   1,   1,1.00233,  -5.8055, 1.10000, 0.90000, 1.10000, 0.90000
   19,'19          ', 138.0000,1,   1,   1,   1,0.93198,  -4.2641, 1.10000, 0.90000, 1.10000, 0.90000
   20,'20          ', 138.0000,1,   1,   1,   1,0.98061,  -5.8752, 1.10000, 0.90000, 1.10000, 0.90000
   21,'21          ', 138.0000,1,   1,   1,   1,0.96024,  -7.0547, 1.10000, 0.90000, 1.10000, 0.90000
   22,'22          ', 138.0000,1,   1,   1,   1,0.99368,  -1.8018, 1.10000, 0.90000, 1.10000, 0.90000
   23,'23          ', 138.0000,1,   1,   1,   1,0.99611,  -2.1614, 1.10000, 0.90000, 1.10000, 0.90000
   24,'24          ', 138.0000,1,   1,   1,   1,0.95870,  -9.8775, 1.10000, 0.90000, 1.10000, 0.90000
   25,'25          ', 138.0000,1,   1,   1,   1,0.99810, -10.0003, 1.10000, 0.90000, 1.10000, 0.90000
   26,'26          ', 138.0000,1,   1,   1,   1,0.98686, -11.0202, 1.10000, 0.90000, 1.10000, 0.90000
   27,'27          ', 138.0000,1,   1,   1,   1,0.96789, -12.8579, 1.10000, 0.90000, 1.10000, 0.90000
   28,'28          ', 138.0000,1,   1,   1,   1,0.98973,  -7.4975, 1.10000, 0.90000, 1.10000, 0.90000
   29,'29          ', 138.0000,1,   1,   1,   1,0.99209,  -4.5472, 1.10000, 0.90000, 1.10000, 0.90000
   30,'30          ', 138.0000,1,   2,   1,   1,0.97618, -19.7108, 1.10000, 0.90000, 1.10000, 0.90000
   31,'31          ', 138.0000,1,   2,   1,   1,0.98381, -17.4648, 1.10000, 0.90000, 1.10000, 0.90000
   32,'32          ', 138.0000,1,   2,   1,   1,0.96988, -15.2383, 1.10000, 0.90000, 1.10000, 0.90000
   33,'33          ', 138.0000,1,   2,   1,   1,0.97381, -19.7588, 1.10000, 0.90000, 1.10000, 0.90000
   34,'34          ', 138.0000,1,   2,   1,   1,0.98003, -26.1167, 1.10000, 0.90000, 1.10000, 0.90000
   35,'35          ', 138.0000,1,   2,   1,   1,1.04302, -27.0893, 1.10000, 0.90000, 1.10000, 0.90000
   36,'36          ', 138.0000,1,   2,   1,   1,0.96064, -28.8282, 1.10000, 0.90000, 1.10000, 0.90000
   37,'37          ', 138.0000,1,   1,   1,   1,0.95551, -11.7888, 1.10000, 0.90000, 1.10000, 0.90000
   38,'38          ', 138.0000,1,   2,   1,   1,0.98897, -18.7601, 1.10000, 0.90000, 1.10000, 0.90000
   39,'39          ', 138.0000,1,   2,   1,   1,0.99154, -39.2910, 1.10000, 0.90000, 1.10000, 0.90000
   40,'40          ', 138.0000,1,   2,   1,   1,1.04422, -13.6407, 1.10000, 0.90000, 1.10000, 0.90000
   41,'41          ', 138.0000,1,   3,   1,   1,0.99964,   9.4267, 1.10000, 0.90000, 1.10000, 0.90000
   42,'42          ', 138.0000,1,   4,   1,   1,0.99896,  -0.8438, 1.10000, 0.90000, 1.10000, 0.90000
   43,'43          ', 138.0000,1,   2,   1,   1,0.97649, -37.9097, 1.10000, 0.90000, 1.10000, 0.90000
   44,'44          ', 138.0000,1,   2,   1,   1,0.97749, -37.9872, 1.10000, 0.90000, 1.10000, 0.90000
   45,'45          ', 138.0000,1,   2,   1,   1,1.04709, -29.3633, 1.10000, 0.90000, 1.10000, 0.90000
   46,'46          ', 138.0000,1,   2,   1,   1,0.99031, -20.5320, 1.10000, 0.90000, 1.10000, 0.90000
   47,'47          ', 138.0000,1,   2,   1,   1,1.01840, -19.4983, 1.10000, 0.90000, 1.10000, 0.90000
   48,'48          ', 138.0000,1,   2,   1,   1,1.03374, -18.3768, 1.10000, 0.90000, 1.10000, 0.90000
   49,'49          ', 138.0000,1,   2,   1,   1,0.99361, -19.8202, 1.10000, 0.90000, 1.10000, 0.90000
   50,'50          ', 138.0000,1,   2,   1,   1,1.06024, -19.0525, 1.10000, 0.90000, 1.10000, 0.90000
   51,'51          ', 138.0000,1,   2,   1,   1,1.06337, -27.2888, 1.10000, 0.90000, 1.10000, 0.90000
   52,'52          ', 138.0000,1,   1,   1,   1,0.95454, -12.8342, 1.10000, 0.90000, 1.10000, 0.90000
   53,'53          ', 138.0000,1,   2,   1,   1,0.98633, -18.9380, 1.10000, 0.90000, 1.10000, 0.90000
   54,'54          ', 138.0000,1,   1,   1,   1,0.98571, -11.5378, 1.10000, 0.90000, 1.10000, 0.90000
   55,'55          ', 138.0000,1,   1,   1,   1,0.95712, -13.2187, 1.10000, 0.90000, 1.10000, 0.90000
   56,'56          ', 138.0000,1,   1,   1,   1,0.92084, -11.9601, 1.10000, 0.90000, 1.10000, 0.90000
   57,'57          ', 138.0000,1,   1,   1,   1,0.91019, -11.2137, 1.10000, 0.90000, 1.10000, 0.90000
   58,'58          ', 138.0000,1,   1,   1,   1,0.90903, -10.4030, 1.10000, 0.90000, 1.10000, 0.90000
   59,'59          ', 138.0000,1,   1,   1,   1,0.90375, -13.3118, 1.10000, 0.90000, 1.10000, 0.90000
   60,'60          ', 138.0000,1,   1,   1,   1,0.90617, -14.0376, 1.10000, 0.90000, 1.10000, 0.90000
   61,'61          ', 138.0000,1,   2,   1,   1,0.95565, -23.2231, 1.10000, 0.90000, 1.10000, 0.90000
   62,'62          ', 138.0000,1,   1,   1,   1,0.91215,  -7.3125, 1.10000, 0.90000, 1.10000, 0.90000
   63,'63          ', 138.0000,1,   1,   1,   1,0.90965,  -8.3707, 1.10000, 0.90000, 1.10000, 0.90000
   64,'64          ', 138.0000,1,   1,   1,   1,0.83666,  -8.3778, 1.10000, 0.90000, 1.10000, 0.90000
   65,'65          ', 138.0000,1,   1,   1,   1,0.91276,  -8.1855, 1.10000, 0.90000, 1.10000, 0.90000
   66,'66          ', 138.0000,1,   1,   1,   1,0.91940, -10.1917, 1.10000, 0.90000, 1.10000, 0.90000
   67,'67          ', 138.0000,1,   1,   1,   1,0.92803, -11.4306, 1.10000, 0.90000, 1.10000, 0.90000
   68,'68          ', 138.0000,1,   1,   1,   1,0.94829, -10.0720, 1.10000, 0.90000, 1.10000, 0.90000
0 / END OF BUS DATA, BEGIN LOAD DATA
    3,'1 ',0,   1,   1,     0.000,    50.000,     0.000,     0.000,     0.000,     0.000,   1,1
   17,'1 ',1,   2,   1,  6000.000,   300.000,     0.000,     0.000,     0.000,     0.000,   1,1
   18,'2 ',1,   5,   1,  2470.000,   123.000,     0.000,     0.000,     0.000,     0.000,   1,1
   20,'3 ',1,   1,   1,   680.000,   103.000,     0.000,     0.000,     0.000,     0.000,   1,1
   21,'4 ',1,   1,   1,   274.000,   115.000,     0.000,     0.000,     0.000,     0.000,   1,1
   23,'5 ',1,   1,   1,   248.000,    85.000,     0.000,     0.000,     0.000,     0.000,   1,1
   24,'6 ',1,   1,   1,   309.000,   -92.000,     0.000,     0.000,     0.000,     0.000,   1,1
   25,'7 ',1,   1,   1,   224.000,    47.000,     0.000,     0.000,     0.000,     0.000,   1,1
   26,'8 ',1,   1,   1,   139.000,    17.000,     0.000,     0.000,     0.000,     0.000,   1,1
   27,'9 ',1,   1,   1,   281.000,    76.000,     0.000,     0.000,     0.000,     0.000,   1,1
   28,'10',1,   1,   1,   206.000,    28.000,     0.000,     0.000,     0.000,     0.000,   1,1
   29,'11',1,   1,   1,   284.000,    27.000,     0.000,     0.000,     0.000,     0.000,   1,1
   33,'12',1,   2,   1,   112.000,     0.000,     0.000,     0.000,     0.000,     0.000,   1,1
   36,'13',1,   2,   1,   102.000,   -19.460,     0.000,     0.000,     0.000,     0.000,   1,1
   39,'14',1,   2,   1,   267.000,    12.600,     0.000,     0.000,     0.000,     0.000,   1,1
   40,'15',1,   2,   1,    65.630,    23.530,     0.000,     0.000,     0.000,     0.000,   1,1
   41,'16',1,   3,   1,  1000.000,   250.000,     0.000,     0.000,     0.000,     0.000,   1,1
   42,'17',1,   4,   1,  1150.000,   250.000,     0.000,     0.000,     0.000,     0.000,   1,1
   44,'18',1,   2,   1,   267.550,     4.840,     0.000,     0.000,     0.000,     0.000,   1,1
   45,'19',1,   2,   1,   208.000,    21.000,     0.000,     0.000,     0.000,     0.000,   1,1
   46,'20',1,   2,   1,   150.700,    28.500,     0.000,     0.000,     0.000,     0.000,   1,1
   47,'21',1,   2,   1,   203.120,    32.590,     0.000,     0.000,     0.000,     0.000,   1,1
   48,'22',1,   2,   1,   241.200,     2.200,     0.000,     0.000,     0.000,     0.000,   1,1
   49,'23',1,   2,   1,   164.000,    29.000,     0.000,     0.000,     0.000,     0.000,   1,1
   50,'24',1,   2,   1,   100.000,  -147.000,     0.000,     0.000,     0.000,     0.000,   1,1
   51,'25',1,   2,   1,   337.000,  -122.000,     0.000,     0.000,     0.000,     0.000,   1,1
   52,'26',1,   1,   1,   158.000,    30.000,     0.000,     0.000,     0.000,     0.000,   1,1
   53,'27',1,   2,   1,   252.700,   118.560,     0.000,     0.000,     0.000,     0.000,   1,1
   55,'28',1,   1,   1,   322.000,     2.000,     0.000,     0.000,     0.000,     0.000,   1,1
   56,'29',1,   1,   1,   200.000,    73.600,     0.000,     0.000,     0.000,     0.000,   1,1
   59,'30',1,   1,   1,   234.000,    84.000,     0.000,     0.000,     0.000,     0.000,   1,1
   60,'31',1,   1,   1,   208.800,    70.800,     0.000,     0.000,     0.000,     0.000,   1,1
   61,'32',1,   2,   1,   104.000,   125.000,     0.000,     0.000,     0.000,     0.000,   1,1
   64,'33',1,   1,   1,     9.000,    88.000,     0.000,     0.000,     0.000,     0.000,   1,1
   67,'34',1,   1,   1,   320.000,   153.000,     0.000,     0.000,     0.000,     0.000,   1,1
   68,'35',1,   1,   1,   329.000,    32.000,     0.000,     0.000,     0.000,     0.000,   1,1
0 / END OF LOAD DATA, BEGIN FIXED SHUNT DATA
0 / END OF FIXED SHUNT DATA, BEGIN GENERATOR DATA
    1,'1 ',   250.000,   196.005,  9900.000, -9900.000,1.04500,    0,   200.000,   0.00000,   0.05000,   0.00000,   0.00000,1.00000,1,  100.0,  9999.000,     0.000,   1,1.0000,   0,1.0000,   0,1.0000,   0,1.0000,0, 1.0000
    2,'1 ',   545.000,    70.011,  9900.000, -9900.000,0.98000,    0,   200.000,   0.00000,   0.10000,   0.00000,   0.00000,1.00000,1,  100.0,  9999.000,     0.000,   1,1.0000,   0,1.0000,   0,1.0000,   0,1.0000,0, 1.0000
    3,'1 ',   650.000,    80.783,  9900.000, -9900.000,0.98300,    0,   200.000,   0.00000,   0.09000,   0.00000,   0.00000,1.00000,1,  100.0,  9999.000,     0.000,   1,1.0000,   0,1.0000,   0,1.0000,   0,1.0000,0, 1.0000
    4,'1 ',   632.000,     0.269,  9900.000, -9900.000,0.99700,    0,   200.000,   0.00000,   0.07000,   0.00000,   0.00000,1.00000,1,  100.0,  9999.000,     0.000,   1,1.0000,   0,1.0000,   0,1.0000,   0,1.0000,0, 1.0000
    5,'1 ',   505.000,   116.574,  9900.000, -9900.000,1.01100,    0,   200.000,   0.00000,   0.10000,   0.00000,   0.00000,1.00000,1,  100.0,  9999.000,     0.000,   1,1.0000,   0,1.0000,   0,1.0000,   0,1.0000,0, 1.0000
    6,'1 ',   700.000,   254.487,  9900.000, -9900.000,1.05000,    0,   200.000,   0.00000,   0.08000,   0.00000,   0.00000,1.00000,1,  100.0,  9999.000,     0.000,   1,1.0000,   0,1.0000,   0,1.0000,   0,1.0000,0, 1.0000
    7,'1 ',   560.000,   290.833,  9900.000, -9900.000,1.06300,    0,   200.000,   0.00000,   0.08000,   0.00000,   0.00000,1.00000,1,  100.0,  9999.000,     0.000,   1,1.0000,   0,1.0000,   0,1.0000,   0,1.0000,0, 1.0000
    8,'1 ',   540.000,    49.077,  9900.000, -9900.000,1.03000,    0,   200.000,   0.00000,   0.09000,   0.00000,   0.00000,1.00000,1,  100.0,  9999.000,     0.000,   1,1.0000,   0,1.0000,   0,1.0000,   0,1.0000,0, 1.0000
    9,'1 ',   800.000,    59.808,  9900.000, -9900.000,1.02500,    0,   200.000,   0.00000,   0.09000,   0.00000,   0.00000,1.00000,1,  100.0,  9999.000,     0.000,   1,1.0000,   0,1.0000,   0,1.0000,   0,1.0000,0, 1.0000
   10,'1 ',   500.000,   -13.100,  9900.000, -9900.000,1.01000,    0,   200.000,   0.00000,   0.08000,   0.00000,   0.00000,1.00000,1,  100.0,  9999.000,     0.000,   1,1.0000,   0,1.0000,   0,1.0000,   0,1.0000,0, 1.0000
   11,'1 ',  1000.000,     8.327,  9900.000, -9900.000,1.00000,    0,   600.000,   0.00000,   0.07200,   0.00000,   0.00000,1.00000,1,  100.0,  9999.000,     0.000,   1,1.0000,   0,1.0000,   0,1.0000,   0,1.0000,0, 1.0000
   12,'1 ',  1350.000,   280.072,  9900.000, -9900.000,1.01560,    0,   200.000,   0.00000,   0.05000,   0.00000,   0.00000,1.00000,1,  100.0,  9999.000,     0.000,   1,1.0000,   0,1.0000,   0,1.0000,   0,1.0000,0, 1.0000
   13,'1 ',  3591.000,   885.025,  9900.000, -9900.000,1.01100,    0,  6000.000,   0.00000,   0.12000,   0.00000,   0.00000,1.00000,1,  100.0,  9999.000,     0.000,   1,1.0000,   0,1.0000,   0,1.0000,   0,1.0000,0, 1.0000
   14,'1 ',  1785.000,    47.485,  9900.000, -9900.000,1.00000,    0,  3000.000,   0.00000,   0.06900,   0.00000,   0.00000,1.00000,1,  100.0,  9999.000,     0.000,   1,1.0000,   0,1.0000,   0,1.0000,   0,1.0000,0, 1.0000
   15,'1 ',  1000.000,    76.732,  9900.000, -9900.000,1.00000,    0,  3000.000,   0.00000,   0.06900,   0.00000,   0.00000,1.00000,1,  100.0,  9999.000,     0.000,   1,1.0000,   0,1.0000,   0,1.0000,   0,1.0000,0, 1.0000
   16,'1 ',  3379.568,    93.655,  9900.000, -9900.000,1.00000,    0,  6000.000,   0.00000,   0.16500,   0.00000,   0.00000,1.00000,1,  100.0,  9999.000,     0.000,   1,1.0000,   0,1.0000,   0,1.0000,   0,1.0000,0, 1.0000
0 / END OF GENERATOR DATA, BEGIN BRANCH DATA
    7,    23,'1 ', 0.00050, 0.02720,0.00000,   0.00,   0.00,   0.00,  0.00000,  0.00000,  0.00000,  0.00000,1,1,   0.0,   1,1.0000,   0,1.0000,   0,1.0000,   0,1.0000
   17,    36,'1 ', 0.00050, 0.00450,0.32000,   0.00,   0.00,   0.00,  0.00000,  0.00000,  0.00000,  0.00000,1,1,   0.0,   1,1.0000,   0,1.0000,   0,1.0000,   0,1.0000
   17,    43,'1 ', 0.00050, 0.02760,0.00000,   0.00,   0.00,   0.00,  0.00000,  0.00000,  0.00000,  0.00000,1,1,   0.0,   1,1.0000,   0,1.0000,   0,1.0000,   0,1.0000
   18,    42,'1 ', 0.00400, 0.06000,2.25000,   0.00,   0.00,   0.00,  0.00000,  0.00000,  0.00000,  0.00000,1,1,   0.0,   1,1.0000,   0,1.0000,   0,1.0000,   0,1.0000
   18,    49,'1 ', 0.00760, 0.11410,1.16000,   0.00,   0.00,   0.00,  0.00000,  0.00000,  0.00000,  0.00000,1,1,   0.0,   1,1.0000,   0,1.0000,   0,1.0000,   0,1.0000
   18,    50,'1 ', 0.00120, 0.02880,2.06000,   0.00,   0.00,   0.00,  0.00000,  0.00000,  0.00000,  0.00000,1,1,   0.0,   1,1.0000,   0,1.0000,   0,1.0000,   0,1.0000
   19,    68,'1 ', 0.00160, 0.01950,0.30400,   0.00,   0.00,   0.00,  0.00000,  0.00000,  0.00000,  0.00000,1,1,   0.0,   1,1.0000,   0,1.0000,   0,1.0000,   0,1.0000
   21,    22,'1 ', 0.00080, 0.01400,0.25650,   0.00,   0.00,   0.00,  0.00000,  0.00000,  0.00000,  0.00000,1,1,   0.0,   1,1.0000,   0,1.0000,   0,1.0000,   0,1.0000
   21,    68,'1 ', 0.00080, 0.01350,0.25480,   0.00,   0.00,   0.00,  0.00000,  0.00000,  0.00000,  0.00000,1,1,   0.0,   1,1.0000,   0,1.0000,   0,1.0000,   0,1.0000
   22,    23,'1 ', 0.00060, 0.00960,0.18460,   0.00,   0.00,   0.00,  0.00000,  0.00000,  0.00000,  0.00000,1,1,   0.0,   1,1.0000,   0,1.0000,   0,1.0000,   0,1.0000
   23,    24,'1 ', 0.00220, 0.03500,0.36100,   0.00,   0.00,   0.00,  0.00000,  0.00000,  0.00000,  0.00000,1,1,   0.0,   1,1.0000,   0,1.0000,   0,1.0000,   0,1.0000
   24,    68,'1 ', 0.00030, 0.00590,0.06800,   0.00,   0.00,   0.00,  0.00000,  0.00000,  0.00000,  0.00000,1,1,   0.0,   1,1.0000,   0,1.0000,   0,1.0000,   0,1.0000
   25,    26,'1 ', 0.00320, 0.03230,0.53100,   0.00,   0.00,   0.00,  0.00000,  0.00000,  0.00000,  0.00000,1,1,   0.0,   1,1.0000,   0,1.0000,   0,1.0000,   0,1.0000
   25,    54,'1 ', 0.00700, 0.00860,0.14600,   0.00,   0.00,   0.00,  0.00000,  0.00000,  0.00000,  0.00000,1,1,   0.0,   1,1.0000,   0,1.0000,   0,1.0000,   0,1.0000
   26,    27,'1 ', 0.00140, 0.01470,0.23960,   0.00,   0.00,   0.00,  0.00000,  0.00000,  0.00000,  0.00000,1,1,   0.0,   1,1.0000,   0,1.0000,   0,1.0000,   0,1.0000
   26,    28,'1 ', 0.00430, 0.04740,0.78020,   0.00,   0.00,   0.00,  0.00000,  0.00000,  0.00000,  0.00000,1,1,   0.0,   1,1.0000,   0,1.0000,   0,1.0000,   0,1.0000
   26,    29,'1 ', 0.00570, 0.06250,1.02900,   0.00,   0.00,   0.00,  0.00000,  0.00000,  0.00000,  0.00000,1,1,   0.0,   1,1.0000,   0,1.0000,   0,1.0000,   0,1.0000
   27,    37,'1 ', 0.00130, 0.01730,0.32160,   0.00,   0.00,   0.00,  0.00000,  0.00000,  0.00000,  0.00000,1,1,   0.0,   1,1.0000,   0,1.0000,   0,1.0000,   0,1.0000
   27,    53,'1 ', 0.03200, 0.32000,0.41000,   0.00,   0.00,   0.00,  0.00000,  0.00000,  0.00000,  0.00000,1,1,   0.0,   1,1.0000,   0,1.0000,   0,1.0000,   0,1.0000
   29,    28,'1 ', 0.00140, 0.01510,0.24900,   0.00,   0.00,   0.00,  0.00000,  0.00000,  0.00000,  0.00000,1,1,   0.0,   1,1.0000,   0,1.0000,   0,1.0000,   0,1.0000
   30,    31,'1 ', 0.00130, 0.01870,0.33300,   0.00,   0.00,   0.00,  0.00000,  0.00000,  0.00000,  0.00000,1,1,   0.0,   1,1.0000,   0,1.0000,   0,1.0000,   0,1.0000
   30,    32,'1 ', 0.00240, 0.02880,0.48800,   0.00,   0.00,   0.00,  0.00000,  0.00000,  0.00000,  0.00000,1,1,   0.0,   1,1.0000,   0,1.0000,   0,1.0000,   0,1.0000
   30,    53,'1 ', 0.00080, 0.00740,0.48000,   0.00,   0.00,   0.00,  0.00000,  0.00000,  0.00000,  0.00000,1,1,   0.0,   1,1.0000,   0,1.0000,   0,1.0000,   0,1.0000
   30,    61,'1 ', 0.00095, 0.00915,0.58000,   0.00,   0.00,   0.00,  0.00000,  0.00000,  0.00000,  0.00000,1,1,   0.0,   1,1.0000,   0,1.0000,   0,1.0000,   0,1.0000
   31,    38,'1 ', 0.00110, 0.01470,0.24700,   0.00,   0.00,   0.00,  0.00000,  0.00000,  0.00000,  0.00000,1,1,   0.0,   1,1.0000,   0,1.0000,   0,1.0000,   0,1.0000
   31,    53,'1 ', 0.00160, 0.01630,0.25000,   0.00,   0.00,   0.00,  0.00000,  0.00000,  0.00000,  0.00000,1,1,   0.0,   1,1.0000,   0,1.0000,   0,1.0000,   0,1.0000
   32,    33,'1 ', 0.00080, 0.00990,0.16800,   0.00,   0.00,   0.00,  0.00000,  0.00000,  0.00000,  0.00000,1,1,   0.0,   1,1.0000,   0,1.0000,   0,1.0000,   0,1.0000
   33,    34,'1 ', 0.00110, 0.01570,0.20200,   0.00,   0.00,   0.00,  0.00000,  0.00000,  0.00000,  0.00000,1,1,   0.0,   1,1.0000,   0,1.0000,   0,1.0000,   0,1.0000
   33,    38,'1 ', 0.00360, 0.04440,0.69300,   0.00,   0.00,   0.00,  0.00000,  0.00000,  0.00000,  0.00000,1,1,   0.0,   1,1.0000,   0,1.0000,   0,1.0000,   0,1.0000
   34,    36,'1 ', 0.00330, 0.01110,1.45000,   0.00,   0.00,   0.00,  0.00000,  0.00000,  0.00000,  0.00000,1,1,   0.0,   1,1.0000,   0,1.0000,   0,1.0000,   0,1.0000
   35,    45,'1 ', 0.00070, 0.01750,1.39000,   0.00,   0.00,   0.00,  0.00000,  0.00000,  0.00000,  0.00000,1,1,   0.0,   1,1.0000,   0,1.0000,   0,1.0000,   0,1.0000
   36,    61,'1 ', 0.00110, 0.00980,0.68000,   0.00,   0.00,   0.00,  0.00000,  0.00000,  0.00000,  0.00000,1,1,   0.0,   1,1.0000,   0,1.0000,   0,1.0000,   0,1.0000
   37,    52,'1 ', 0.00070, 0.00820,0.13190,   0.00,   0.00,   0.00,  0.00000,  0.00000,  0.00000,  0.00000,1,1,   0.0,   1,1.0000,   0,1.0000,   0,1.0000,   0,1.0000
   37,    68,'1 ', 0.00070, 0.00890,0.13420,   0.00,   0.00,   0.00,  0.00000,  0.00000,  0.00000,  0.00000,1,1,   0.0,   1,1.0000,   0,1.0000,   0,1.0000,   0,1.0000
   38,    46,'1 ', 0.00220, 0.02840,0.43000,   0.00,   0.00,   0.00,  0.00000,  0.00000,  0.00000,  0.00000,1,1,   0.0,   1,1.0000,   0,1.0000,   0,1.0000,   0,1.0000
   39,    44,'1 ', 0.00000, 0.04110,0.00000,   0.00,   0.00,   0.00,  0.00000,  0.00000,  0.00000,  0.00000,1,1,   0.0,   1,1.0000,   0,1.0000,   0,1.0000,   0,1.0000
   39,    45,'1 ', 0.00000, 0.08390,0.00000,   0.00,   0.00,   0.00,  0.00000,  0.00000,  0.00000,  0.00000,1,1,   0.0,   1,1.0000,   0,1.0000,   0,1.0000,   0,1.0000
   40,    41,'1 ', 0.00600, 0.08400,3.15000,   0.00,   0.00,   0.00,  0.00000,  0.00000,  0.00000,  0.00000,1,1,   0.0,   1,1.0000,   0,1.0000,   0,1.0000,   0,1.0000
   40,    48,'1 ', 0.00200, 0.02200,1.28000,   0.00,   0.00,   0.00,  0.00000,  0.00000,  0.00000,  0.00000,1,1,   0.0,   1,1.0000,   0,1.0000,   0,1.0000,   0,1.0000
   41,    42,'1 ', 0.00400, 0.06000,2.25000,   0.00,   0.00,   0.00,  0.00000,  0.00000,  0.00000,  0.00000,1,1,   0.0,   1,1.0000,   0,1.0000,   0,1.0000,   0,1.0000
   43,    44,'1 ', 0.00010, 0.00110,0.00000,   0.00,   0.00,   0.00,  0.00000,  0.00000,  0.00000,  0.00000,1,1,   0.0,   1,1.0000,   0,1.0000,   0,1.0000,   0,1.0000
   44,    45,'1 ', 0.00250, 0.07300,0.00000,   0.00,   0.00,   0.00,  0.00000,  0.00000,  0.00000,  0.00000,1,1,   0.0,   1,1.0000,   0,1.0000,   0,1.0000,   0,1.0000
   45,    51,'1 ', 0.00040, 0.01050,0.72000,   0.00,   0.00,   0.00,  0.00000,  0.00000,  0.00000,  0.00000,1,1,   0.0,   1,1.0000,   0,1.0000,   0,1.0000,   0,1.0000
   46,    49,'1 ', 0.00180, 0.02740,0.27000,   0.00,   0.00,   0.00,  0.00000,  0.00000,  0.00000,  0.00000,1,1,   0.0,   1,1.0000,   0,1.0000,   0,1.0000,   0,1.0000
   47,    48,'1 ', 0.00125, 0.01340,0.80000,   0.00,   0.00,   0.00,  0.00000,  0.00000,  0.00000,  0.00000,1,1,   0.0,   1,1.0000,   0,1.0000,   0,1.0000,   0,1.0000
   47,    53,'1 ', 0.00130, 0.01880,1.31000,   0.00,   0.00,   0.00,  0.00000,  0.00000,  0.00000,  0.00000,1,1,   0.0,   1,1.0000,   0,1.0000,   0,1.0000,   0,1.0000
   50,    51,'1 ', 0.00090, 0.02210,1.62000,   0.00,   0.00,   0.00,  0.00000,  0.00000,  0.00000,  0.00000,1,1,   0.0,   1,1.0000,   0,1.0000,   0,1.0000,   0,1.0000
   52,    55,'1 ', 0.00110, 0.01330,0.21380,   0.00,   0.00,   0.00,  0.00000,  0.00000,  0.00000,  0.00000,1,1,   0.0,   1,1.0000,   0,1.0000,   0,1.0000,   0,1.0000
   53,    54,'1 ', 0.00350, 0.04110,0.69870,   0.00,   0.00,   0.00,  0.00000,  0.00000,  0.00000,  0.00000,1,1,   0.0,   1,1.0000,   0,1.0000,   0,1.0000,   0,1.0000
   54,    55,'1 ', 0.00130, 0.01510,0.25720,   0.00,   0.00,   0.00,  0.00000,  0.00000,  0.00000,  0.00000,1,1,   0.0,   1,1.0000,   0,1.0000,   0,1.0000,   0,1.0000
   55,    56,'1 ', 0.00130, 0.02130,0.22140,   0.00,   0.00,   0.00,  0.00000,  0.00000,  0.00000,  0.00000,1,1,   0.0,   1,1.0000,   0,1.0000,   0,1.0000,   0,1.0000
   56,    57,'1 ', 0.00080, 0.01280,0.13420,   0.00,   0.00,   0.00,  0.00000,  0.00000,  0.00000,  0.00000,1,1,   0.0,   1,1.0000,   0,1.0000,   0,1.0000,   0,1.0000
   56,    66,'1 ', 0.00080, 0.01290,0.13820,   0.00,   0.00,   0.00,  0.00000,  0.00000,  0.00000,  0.00000,1,1,   0.0,   1,1.0000,   0,1.0000,   0,1.0000,   0,1.0000
   57,    58,'1 ', 0.00020, 0.00260,0.04340,   0.00,   0.00,   0.00,  0.00000,  0.00000,  0.00000,  0.00000,1,1,   0.0,   1,1.0000,   0,1.0000,   0,1.0000,   0,1.0000
   57,    60,'1 ', 0.00080, 0.01120,0.14760,   0.00,   0.00,   0.00,  0.00000,  0.00000,  0.00000,  0.00000,1,1,   0.0,   1,1.0000,   0,1.0000,   0,1.0000,   0,1.0000
   58,    59,'1 ', 0.00060, 0.00920,0.11300,   0.00,   0.00,   0.00,  0.00000,  0.00000,  0.00000,  0.00000,1,1,   0.0,   1,1.0000,   0,1.0000,   0,1.0000,   0,1.0000
   58,    63,'1 ', 0.00070, 0.00820,0.13890,   0.00,   0.00,   0.00,  0.00000,  0.00000,  0.00000,  0.00000,1,1,   0.0,   1,1.0000,   0,1.0000,   0,1.0000,   0,1.0000
   59,    60,'1 ', 0.00040, 0.00460,0.07800,   0.00,   0.00,   0.00,  0.00000,  0.00000,  0.00000,  0.00000,1,1,   0.0,   1,1.0000,   0,1.0000,   0,1.0000,   0,1.0000
   60,    61,'1 ', 0.00230, 0.03630,0.38040,   0.00,   0.00,   0.00,  0.00000,  0.00000,  0.00000,  0.00000,1,1,   0.0,   1,1.0000,   0,1.0000,   0,1.0000,   0,1.0000
   62,    63,'1 ', 0.00040, 0.00430,0.07290,   0.00,   0.00,   0.00,  0.00000,  0.00000,  0.00000,  0.00000,1,1,   0.0,   1,1.0000,   0,1.0000,   0,1.0000,   0,1.0000
   62,    65,'1 ', 0.00040, 0.00430,0.07290,   0.00,   0.00,   0.00,  0.00000,  0.00000,  0.00000,  0.00000,1,1,   0.0,   1,1.0000,   0,1.0000,   0,1.0000,   0,1.0000
   65,    66,'1 ', 0.00090, 0.01010,0.17230,   0.00,   0.00,   0.00,  0.00000,  0.00000,  0.00000,  0.00000,1,1,   0.0,   1,1.0000,   0,1.0000,   0,1.0000,   0,1.0000
   66,    67,'1 ', 0.00180, 0.02170,0.36600,   0.00,   0.00,   0.00,  0.00000,  0.00000,  0.00000,  0.00000,1,1,   0.0,   1,1.0000,   0,1.0000,   0,1.0000,   0,1.0000
   67,    68,'1 ', 0.00090, 0.00940,0.17100,   0.00,   0.00,   0.00,  0.00000,  0.00000,  0.00000,  0.00000,1,1,   0.0,   1,1.0000,   0,1.0000,   0,1.0000,   0,1.0000
0 / END OF BRANCH DATA, BEGIN TRANSFORMER DATA
    1,   54,    0,'1 ',1,1,1,  0.00000,  0.00000,2,'            ',1,   1,1.0000,   0,1.0000,   0,1.0000,   0,1.0000
 0.00000, 0.01810, 100.00
1.02500,138.000,   0.000,   0.00,   0.00,   0.00,0,     0, 1.50000, 0.51000, 1.50000, 0.51000,159, 0, 0.00000, 0.00000
1.00000,138.000
    2,   58,    0,'1 ',1,1,1,  0.00000,  0.00000,2,'            ',1,   1,1.0000,   0,1.0000,   0,1.0000,   0,1.0000
 0.00000, 0.02500, 100.00
1.07000,138.000,   0.000,   0.00,   0.00,   0.00,0,     0, 1.50000, 0.51000, 1.50000, 0.51000,159, 0, 0.00000, 0.00000
1.00000,138.000
    3,   62,    0,'1 ',1,1,1,  0.00000,  0.00000,2,'            ',1,   1,1.0000,   0,1.0000,   0,1.0000,   0,1.0000
 0.00000, 0.02000, 100.00
1.07000,138.000,   0.000,   0.00,   0.00,   0.00,0,     0, 1.50000, 0.51000, 1.50000, 0.51000,159, 0, 0.00000, 0.00000
1.00000,138.000
    4,   19,    0,'1 ',1,1,1,  0.00000,  0.00000,2,'            ',1,   1,1.0000,   0,1.0000,   0,1.0000,   0,1.0000
 0.00070, 0.01420, 100.00
1.07000,138.000,   0.000,   0.00,   0.00,   0.00,0,     0, 1.50000, 0.51000, 1.50000, 0.51000,159, 0, 0.00000, 0.00000
1.00000,138.000
    5,   20,    0,'1 ',1,1,1,  0.00000,  0.00000,2,'            ',1,   1,1.0000,   0,1.0000,   0,1.0000,   0,1.0000
 0.00090, 0.01800, 100.00
1.00900,138.000,   0.000,   0.00,   0.00,   0.00,0,     0, 1.50000, 0.51000, 1.50000, 0.51000,159, 0, 0.00000, 0.00000
1.00000,138.000
    6,   22,    0,'1 ',1,1,1,  0.00000,  0.00000,2,'            ',1,   1,1.0000,   0,1.0000,   0,1.0000,   0,1.0000
 0.00000, 0.01430, 100.00
1.02500,138.000,   0.000,   0.00,   0.00,   0.00,0,     0, 1.50000, 0.51000, 1.50000, 0.51000,159, 0, 0.00000, 0.00000
1.00000,138.000
    8,   25,    0,'1 ',1,1,1,  0.00000,  0.00000,2,'            ',1,   1,1.0000,   0,1.0000,   0,1.0000,   0,1.0000
 0.00060, 0.02320, 100.00
1.02500,138.000,   0.000,   0.00,   0.00,   0.00,0,     0, 1.50000, 0.51000, 1.50000, 0.51000,159, 0, 0.00000, 0.00000
1.00000,138.000
    9,   29,    0,'1 ',1,1,1,  0.00000,  0.00000,2,'            ',1,   1,1.0000,   0,1.0000,   0,1.0000,   0,1.0000
 0.00080, 0.01560, 100.00
1.02500,138.000,   0.000,   0.00,   0.00,   0.00,0,     0, 1.50000, 0.51000, 1.50000, 0.51000,159, 0, 0.00000, 0.00000
1.00000,138.000
   10,   31,    0,'1 ',1,1,1,  0.00000,  0.00000,2,'            ',1,   1,1.0000,   0,1.0000,   0,1.0000,   0,1.0000
 0.00000, 0.02600, 100.00
1.04000,138.000,   0.000,   0.00,   0.00,   0.00,0,     0, 1.50000, 0.51000, 1.50000, 0.51000,159, 0, 0.00000, 0.00000
1.00000,138.000
   11,   32,    0,'1 ',1,1,1,  0.00000,  0.00000,2,'            ',1,   1,1.0000,   0,1.0000,   0,1.0000,   0,1.0000
 0.00000, 0.01300, 100.00
1.04000,138.000,   0.000,   0.00,   0.00,   0.00,0,     0, 1.50000, 0.51000, 1.50000, 0.51000,159, 0, 0.00000, 0.00000
1.00000,138.000
   12,   36,    0,'1 ',1,1,1,  0.00000,  0.00000,2,'            ',1,   1,1.0000,   0,1.0000,   0,1.0000,   0,1.0000
 0.00000, 0.00750, 100.00
1.04000,138.000,   0.000,   0.00,   0.00,   0.00,0,     0, 1.50000, 0.51000, 1.50000, 0.51000,159, 0, 0.00000, 0.00000
1.00000,138.000
   13,   17,    0,'1 ',1,1,1,  0.00000,  0.00000,2,'            ',1,   1,1.0000,   0,1.0000,   0,1.0000,   0,1.0000
 0.00000, 0.00330, 100.00
1.04000,138.000,   0.000,   0.00,   0.00,   0.00,0,     0, 1.50000, 0.51000, 1.50000, 0.51000,159, 0, 0.00000, 0.00000
1.00000,138.000
   14,   41,    0,'1 ',1,1,1,  0.00000,  0.00000,2,'            ',1,   1,1.0000,   0,1.0000,   0,1.0000,   0,1.0000
 0.00000, 0.00150, 100.00
1.00000,138.000,   0.000,   0.00,   0.00,   0.00,0,     0, 1.50000, 0.51000, 1.50000, 0.51000,159, 0, 0.00000, 0.00000
1.00000,138.000
   15,   42,    0,'1 ',1,1,1,  0.00000,  0.00000,2,'            ',1,   1,1.0000,   0,1.0000,   0,1.0000,   0,1.0000
 0.00000, 0.00150, 100.00
1.00000,138.000,   0.000,   0.00,   0.00,   0.00,0,     0, 1.50000, 0.51000, 1.50000, 0.51000,159, 0, 0.00000, 0.00000
1.00000,138.000
   16,   18,    0,'1 ',1,1,1,  0.00000,  0.00000,2,'            ',1,   1,1.0000,   0,1.0000,   0,1.0000,   0,1.0000
 0.00000, 0.00300, 100.00
1.00000,138.000,   0.000,   0.00,   0.00,   0.00,0,     0, 1.50000, 0.51000, 1.50000, 0.51000,159, 0, 0.00000, 0.00000
1.00000,138.000
   20,   19,    0,'1 ',1,1,1,  0.00000,  0.00000,2,'            ',1,   1,1.0000,   0,1.0000,   0,1.0000,   0,1.0000
 0.00070, 0.01380, 100.00
1.06000,138.000,   0.000,   0.00,   0.00,   0.00,0,     0, 1.50000, 0.51000, 1.50000, 0.51000,159, 0, 0.00000, 0.00000
1.00000,138.000
   34,   35,    0,'1 ',1,1,1,  0.00000,  0.00000,2,'            ',1,   1,1.0000,   0,1.0000,   0,1.0000,   0,1.0000
 0.00010, 0.00740, 100.00
0.94600,138.000,   0.000,   0.00,   0.00,   0.00,0,     0, 1.50000, 0.51000, 1.50000, 0.51000,159, 0, 0.00000, 0.00000
1.00000,138.000
   63,   64,    0,'1 ',1,1,1,  0.00000,  0.00000,2,'            ',1,   1,1.0000,   0,1.0000,   0,1.0000,   0,1.0000
 0.00160, 0.04350, 100.00
1.06000,138.000,   0.000,   0.00,   0.00,   0.00,0,     0, 1.50000, 0.51000, 1.50000, 0.51000,159, 0, 0.00000, 0.00000
1.00000,138.000
   65,   64,    0,'1 ',1,1,1,  0.00000,  0.00000,2,'            ',1,   1,1.0000,   0,1.0000,   0,1.0000,   0,1.0000
 0.00160, 0.04350, 100.00
1.06000,138.000,   0.000,   0.00,   0.00,   0.00,0,     0, 1.50000, 0.51000, 1.50000, 0.51000,159, 0, 0.00000, 0.00000
1.00000,138.000
0 / END OF TRANSFORMER DATA, BEGIN AREA DATA
   1,    0,     0.000,     1.000,'NETS        '
   2,    0,     0.000,     1.000,'NYPS        '
   3,    0,     0.000,     1.000,'AREA3       '
   4,    0,     0.000,     1.000,'AREA4       '
   5,    0,     0.000,     1.000,'AREA5       '
0 / END OF AREA DATA, BEGIN TWO-TERMINAL DC DATA
0 / END OF TWO-TERMINAL DC DATA, BEGIN VOLTAGE SOURCE CONVERTER DATA
0 / END OF VOLTAGE SOURCE CONVERTER DATA, BEGIN IMPEDANCE CORRECTION DATA
0 / END OF IMPEDANCE CORRECTION DATA, BEGIN MULTI-TERMINAL DC DATA
0 / END OF MULTI-TERMINAL DC DATA, BEGIN MULTI-SECTION LINE DATA
0 / END OF MULTI-SECTION LINE DATA, BEGIN ZONE DATA
   1,'1       '
0 / END OF ZONE DATA, BEGIN INTER-AREA TRANSFER DATA
0 / END OF INTER-AREA TRANSFER DATA, BEGIN OWNER DATA
    1,'1'
0 / END OF OWNER DATA, BEGIN FACTS CONTROL DEVICE DATA
0 / END OF FACTS CONTROL DEVICE DATA, BEGIN SWITCHED SHUNT DATA
0 /END OF SWITCHED SHUNT DATA, BEGIN GNE DEVICE DATA
0 /END OF GNE DEVICE DATA
Q
